Circuit: * D:\Repositories\LED-Lampe-Robin-Teensy\simulation\sampling_circuit.asc

Direct Newton iteration for .op point succeeded.
.step freq=20
.step freq=200
.step freq=2000
.step freq=20000

Date: Fri Dec 30 14:49:28 2022
Total elapsed time: 1.397 seconds.

tnom = 27
temp = 27
method = modified trap
totiter = 192001
traniter = 191997
tranpoints = 79017
accept = 51015
rejected = 28002
matrix size = 8
fillins = 0
solver = Normal
Matrix Compiler1:      16 opcodes  0.1/[0.0]/0.0
Matrix Compiler2: 560 bytes object code size  0.1/0.1/[0.1]

