Circuit: * D:\Repositories\LED-Lampe-Robin-Teensy\simulation\sampling_circuit.asc

Direct Newton iteration for .op point succeeded.
.step freq=20
.step freq=200
.step freq=2000
.step freq=20000

Date: Thu Dec 29 18:31:51 2022
Total elapsed time: 0.615 seconds.

tnom = 27
temp = 27
method = modified trap
totiter = 144035
traniter = 144032
tranpoints = 72017
accept = 48014
rejected = 24003
matrix size = 6
fillins = 0
solver = Normal
Matrix Compiler1: 146 bytes object code size  0.1/0.0/[0.0]
Matrix Compiler2: off  [0.1]/0.1/0.1

